1
1
.ac dec 10 1 100k{return}{return}
2
9
out
V
5
out
V
